! wb97m-D3BJ def2-TZVPP rijcosx tightscf SCFConvForced
%base"molecule"
*xyz 0 1
O -1.3637903 -0.2529970 0.0012144
H -0.4197196 -0.0940599 0.0005973
H -1.7778177 0.6077623 -0.0005227
O 1.1050447 0.1626388 -0.0003994
H 1.7347029 -0.5607554 -0.0021125
H 1.6320208 0.9648187 0.0125719
*
$new_job
! wb97m-D3BJ def2-TZVPP rijcosx tightscf SCFConvForced
%base"molecule"
*xyz 0 1
O -1.4637903 -0.2529970 0.0012144
H -0.5197196 -0.0940599 0.0005973
H -1.8778177 0.6077623 -0.0005227
O 1.1050447 0.1626388 -0.0003994
H 1.7347029 -0.5607554 -0.0021125
H 1.6320208 0.9648187 0.0125719
*
$new_job
! wb97m-D3BJ def2-TZVPP rijcosx tightscf SCFConvForced
%base"molecule"
*xyz 0 1
O -1.5637903 -0.2529970 0.0012144
H -0.6197196 -0.0940599 0.0005973
H -1.9778177 0.6077623 -0.0005227
O 1.1050447 0.1626388 -0.0003994
H 1.7347029 -0.5607554 -0.0021125
H 1.6320208 0.9648187 0.0125719
*
$new_job
! wb97m-D3BJ def2-TZVPP rijcosx tightscf SCFConvForced
%base"molecule"
*xyz 0 1
O -1.6637903 -0.2529970 0.0012144
H -0.7197196 -0.0940599 0.0005973
H -2.0778177 0.6077623 -0.0005227
O 1.1050447 0.1626388 -0.0003994
H 1.7347029 -0.5607554 -0.0021125
H 1.6320208 0.9648187 0.0125719
*
$new_job
! wb97m-D3BJ def2-TZVPP rijcosx tightscf SCFConvForced
%base"molecule"
*xyz 0 1
O -1.7637902 -0.2529970 0.0012144
H -0.8197196 -0.0940599 0.0005973
H -2.1778176 0.6077623 -0.0005227
O 1.1050447 0.1626388 -0.0003994
H 1.7347029 -0.5607554 -0.0021125
H 1.6320208 0.9648187 0.0125719
*
$new_job
! wb97m-D3BJ def2-TZVPP rijcosx tightscf SCFConvForced
%base"molecule"
*xyz 0 1
O -1.8637903 -0.2529970 0.0012144
H -0.9197196 -0.0940599 0.0005973
H -2.2778177 0.6077623 -0.0005227
O 1.1050447 0.1626388 -0.0003994
H 1.7347029 -0.5607554 -0.0021125
H 1.6320208 0.9648187 0.0125719
*
$new_job
! wb97m-D3BJ def2-TZVPP rijcosx tightscf SCFConvForced
%base"molecule"
*xyz 0 1
O -1.9637903 -0.2529970 0.0012144
H -1.0197196 -0.0940599 0.0005973
H -2.3778176 0.6077623 -0.0005227
O 1.1050447 0.1626388 -0.0003994
H 1.7347029 -0.5607554 -0.0021125
H 1.6320208 0.9648187 0.0125719
*
$new_job
! wb97m-D3BJ def2-TZVPP rijcosx tightscf SCFConvForced
%base"molecule"
*xyz 0 1
O -2.0637903 -0.2529970 0.0012144
H -1.1197196 -0.0940599 0.0005973
H -2.4778178 0.6077623 -0.0005227
O 1.1050447 0.1626388 -0.0003994
H 1.7347029 -0.5607554 -0.0021125
H 1.6320208 0.9648187 0.0125719
*
$new_job
! wb97m-D3BJ def2-TZVPP rijcosx tightscf SCFConvForced
%base"molecule"
*xyz 0 1
O -2.1637902 -0.2529970 0.0012144
H -1.2197196 -0.0940599 0.0005973
H -2.5778177 0.6077623 -0.0005227
O 1.1050447 0.1626388 -0.0003994
H 1.7347029 -0.5607554 -0.0021125
H 1.6320208 0.9648187 0.0125719
*
$new_job
! wb97m-D3BJ def2-TZVPP rijcosx tightscf SCFConvForced
%base"molecule"
*xyz 0 1
O -2.2637904 -0.2529970 0.0012144
H -1.3197196 -0.0940599 0.0005973
H -2.6778176 0.6077623 -0.0005227
O 1.1050447 0.1626388 -0.0003994
H 1.7347029 -0.5607554 -0.0021125
H 1.6320208 0.9648187 0.0125719
*
$new_job
! wb97m-D3BJ def2-TZVPP rijcosx tightscf SCFConvForced
%base"molecule"
*xyz 0 1
O -2.3637903 -0.2529970 0.0012144
H -1.4197196 -0.0940599 0.0005973
H -2.7778177 0.6077623 -0.0005227
O 1.1050447 0.1626388 -0.0003994
H 1.7347029 -0.5607554 -0.0021125
H 1.6320208 0.9648187 0.0125719
*
$new_job
! wb97m-D3BJ def2-TZVPP rijcosx tightscf SCFConvForced
%base"molecule"
*xyz 0 1
O -2.4637904 -0.2529970 0.0012144
H -1.5197196 -0.0940599 0.0005973
H -2.8778176 0.6077623 -0.0005227
O 1.1050447 0.1626388 -0.0003994
H 1.7347029 -0.5607554 -0.0021125
H 1.6320208 0.9648187 0.0125719
*
$new_job
! wb97m-D3BJ def2-TZVPP rijcosx tightscf SCFConvForced
%base"molecule"
*xyz 0 1
O -2.5637903 -0.2529970 0.0012144
H -1.6197196 -0.0940599 0.0005973
H -2.9778178 0.6077623 -0.0005227
O 1.1050447 0.1626388 -0.0003994
H 1.7347029 -0.5607554 -0.0021125
H 1.6320208 0.9648187 0.0125719
*
$new_job
! wb97m-D3BJ def2-TZVPP rijcosx tightscf SCFConvForced
%base"molecule"
*xyz 0 1
O -2.6637902 -0.2529970 0.0012144
H -1.7197196 -0.0940599 0.0005973
H -3.0778177 0.6077623 -0.0005227
O 1.1050447 0.1626388 -0.0003994
H 1.7347029 -0.5607554 -0.0021125
H 1.6320208 0.9648187 0.0125719
*
$new_job
! wb97m-D3BJ def2-TZVPP rijcosx tightscf SCFConvForced
%base"molecule"
*xyz 0 1
O -2.7637904 -0.2529970 0.0012144
H -1.8197196 -0.0940599 0.0005973
H -3.1778176 0.6077623 -0.0005227
O 1.1050447 0.1626388 -0.0003994
H 1.7347029 -0.5607554 -0.0021125
H 1.6320208 0.9648187 0.0125719
*
$new_job
! wb97m-D3BJ def2-TZVPP rijcosx tightscf SCFConvForced
%base"molecule"
*xyz 0 1
O -2.8637903 -0.2529970 0.0012144
H -1.9197196 -0.0940599 0.0005973
H -3.2778177 0.6077623 -0.0005227
O 1.1050447 0.1626388 -0.0003994
H 1.7347029 -0.5607554 -0.0021125
H 1.6320208 0.9648187 0.0125719
*
$new_job
! wb97m-D3BJ def2-TZVPP rijcosx tightscf SCFConvForced
%base"molecule"
*xyz 0 1
O -2.9637904 -0.2529970 0.0012144
H -2.0197196 -0.0940599 0.0005973
H -3.3778176 0.6077623 -0.0005227
O 1.1050447 0.1626388 -0.0003994
H 1.7347029 -0.5607554 -0.0021125
H 1.6320208 0.9648187 0.0125719
*
$new_job
! wb97m-D3BJ def2-TZVPP rijcosx tightscf SCFConvForced
%base"molecule"
*xyz 0 1
O -3.0637903 -0.2529970 0.0012144
H -2.1197195 -0.0940599 0.0005973
H -3.4778178 0.6077623 -0.0005227
O 1.1050447 0.1626388 -0.0003994
H 1.7347029 -0.5607554 -0.0021125
H 1.6320208 0.9648187 0.0125719
*
$new_job
! wb97m-D3BJ def2-TZVPP rijcosx tightscf SCFConvForced
%base"molecule"
*xyz 0 1
O -3.1637902 -0.2529970 0.0012144
H -2.2197196 -0.0940599 0.0005973
H -3.5778177 0.6077623 -0.0005227
O 1.1050447 0.1626388 -0.0003994
H 1.7347029 -0.5607554 -0.0021125
H 1.6320208 0.9648187 0.0125719
*
$new_job
! wb97m-D3BJ def2-TZVPP rijcosx tightscf SCFConvForced
%base"molecule"
*xyz 0 1
O -3.2637904 -0.2529970 0.0012144
H -2.3197196 -0.0940599 0.0005973
H -3.6778176 0.6077623 -0.0005227
O 1.1050447 0.1626388 -0.0003994
H 1.7347029 -0.5607554 -0.0021125
H 1.6320208 0.9648187 0.0125719
*
$new_job
! wb97m-D3BJ def2-TZVPP rijcosx tightscf SCFConvForced
%base"molecule"
*xyz 0 1
O -3.3637903 -0.2529970 0.0012144
H -2.4197197 -0.0940599 0.0005973
H -3.7778177 0.6077623 -0.0005227
O 1.1050447 0.1626388 -0.0003994
H 1.7347029 -0.5607554 -0.0021125
H 1.6320208 0.9648187 0.0125719
*
$new_job
! wb97m-D3BJ def2-TZVPP rijcosx tightscf SCFConvForced
%base"molecule"
*xyz 0 1
O -3.4637904 -0.2529970 0.0012144
H -2.5197196 -0.0940599 0.0005973
H -3.8778176 0.6077623 -0.0005227
O 1.1050447 0.1626388 -0.0003994
H 1.7347029 -0.5607554 -0.0021125
H 1.6320208 0.9648187 0.0125719
*
$new_job
! wb97m-D3BJ def2-TZVPP rijcosx tightscf SCFConvForced
%base"molecule"
*xyz 0 1
O -3.5637903 -0.2529970 0.0012144
H -2.6197195 -0.0940599 0.0005973
H -3.9778178 0.6077623 -0.0005227
O 1.1050447 0.1626388 -0.0003994
H 1.7347029 -0.5607554 -0.0021125
H 1.6320208 0.9648187 0.0125719
*
$new_job
! wb97m-D3BJ def2-TZVPP rijcosx tightscf SCFConvForced
%base"molecule"
*xyz 0 1
O -3.6637902 -0.2529970 0.0012144
H -2.7197196 -0.0940599 0.0005973
H -4.0778179 0.6077623 -0.0005227
O 1.1050447 0.1626388 -0.0003994
H 1.7347029 -0.5607554 -0.0021125
H 1.6320208 0.9648187 0.0125719
*
$new_job
! wb97m-D3BJ def2-TZVPP rijcosx tightscf SCFConvForced
%base"molecule"
*xyz 0 1
O -3.7637904 -0.2529970 0.0012144
H -2.8197196 -0.0940599 0.0005973
H -4.1778178 0.6077623 -0.0005227
O 1.1050447 0.1626388 -0.0003994
H 1.7347029 -0.5607554 -0.0021125
H 1.6320208 0.9648187 0.0125719
*
$new_job
! wb97m-D3BJ def2-TZVPP rijcosx tightscf SCFConvForced
%base"molecule"
*xyz 0 1
O -3.8637903 -0.2529970 0.0012144
H -2.9197197 -0.0940599 0.0005973
H -4.2778177 0.6077623 -0.0005227
O 1.1050447 0.1626388 -0.0003994
H 1.7347029 -0.5607554 -0.0021125
H 1.6320208 0.9648187 0.0125719
*
$new_job
! wb97m-D3BJ def2-TZVPP rijcosx tightscf SCFConvForced
%base"molecule"
*xyz 0 1
O -3.9637904 -0.2529970 0.0012144
H -3.0197196 -0.0940599 0.0005973
H -4.3778176 0.6077623 -0.0005227
O 1.1050447 0.1626388 -0.0003994
H 1.7347029 -0.5607554 -0.0021125
H 1.6320208 0.9648187 0.0125719
*
$new_job
! wb97m-D3BJ def2-TZVPP rijcosx tightscf SCFConvForced
%base"molecule"
*xyz 0 1
O -4.0637903 -0.2529970 0.0012144
H -3.1197195 -0.0940599 0.0005973
H -4.4778175 0.6077623 -0.0005227
O 1.1050447 0.1626388 -0.0003994
H 1.7347029 -0.5607554 -0.0021125
H 1.6320208 0.9648187 0.0125719
*
$new_job
! wb97m-D3BJ def2-TZVPP rijcosx tightscf SCFConvForced
%base"molecule"
*xyz 0 1
O -4.1637902 -0.2529970 0.0012144
H -3.2197196 -0.0940599 0.0005973
H -4.5778179 0.6077623 -0.0005227
O 1.1050447 0.1626388 -0.0003994
H 1.7347029 -0.5607554 -0.0021125
H 1.6320208 0.9648187 0.0125719
*
$new_job
! wb97m-D3BJ def2-TZVPP rijcosx tightscf SCFConvForced
%base"molecule"
*xyz 0 1
O -4.2637901 -0.2529970 0.0012144
H -3.3197196 -0.0940599 0.0005973
H -4.6778178 0.6077623 -0.0005227
O 1.1050447 0.1626388 -0.0003994
H 1.7347029 -0.5607554 -0.0021125
H 1.6320208 0.9648187 0.0125719
*
$new_job
! wb97m-D3BJ def2-TZVPP rijcosx tightscf SCFConvForced
%base"molecule"
*xyz 0 1
O -4.3637905 -0.2529970 0.0012144
H -3.4197197 -0.0940599 0.0005973
H -4.7778177 0.6077623 -0.0005227
O 1.1050447 0.1626388 -0.0003994
H 1.7347029 -0.5607554 -0.0021125
H 1.6320208 0.9648187 0.0125719
*
$new_job
! wb97m-D3BJ def2-TZVPP rijcosx tightscf SCFConvForced
%base"molecule"
*xyz 0 1
O -4.4637904 -0.2529970 0.0012144
H -3.5197196 -0.0940599 0.0005973
H -4.8778176 0.6077623 -0.0005227
O 1.1050447 0.1626388 -0.0003994
H 1.7347029 -0.5607554 -0.0021125
H 1.6320208 0.9648187 0.0125719
*
$new_job
! wb97m-D3BJ def2-TZVPP rijcosx tightscf SCFConvForced
%base"molecule"
*xyz 0 1
O -4.5637903 -0.2529970 0.0012144
H -3.6197195 -0.0940599 0.0005973
H -4.9778175 0.6077623 -0.0005227
O 1.1050447 0.1626388 -0.0003994
H 1.7347029 -0.5607554 -0.0021125
H 1.6320208 0.9648187 0.0125719
*
$new_job
! wb97m-D3BJ def2-TZVPP rijcosx tightscf SCFConvForced
%base"molecule"
*xyz 0 1
O -4.6637902 -0.2529970 0.0012144
H -3.7197196 -0.0940599 0.0005973
H -5.0778179 0.6077623 -0.0005227
O 1.1050447 0.1626388 -0.0003994
H 1.7347029 -0.5607554 -0.0021125
H 1.6320208 0.9648187 0.0125719
*
$new_job
! wb97m-D3BJ def2-TZVPP rijcosx tightscf SCFConvForced
%base"molecule"
*xyz 0 1
O -4.7637901 -0.2529970 0.0012144
H -3.8197196 -0.0940599 0.0005973
H -5.1778178 0.6077623 -0.0005227
O 1.1050447 0.1626388 -0.0003994
H 1.7347029 -0.5607554 -0.0021125
H 1.6320208 0.9648187 0.0125719
*
$new_job
! wb97m-D3BJ def2-TZVPP rijcosx tightscf SCFConvForced
%base"molecule"
*xyz 0 1
O -4.8637905 -0.2529970 0.0012144
H -3.9197197 -0.0940599 0.0005973
H -5.2778177 0.6077623 -0.0005227
O 1.1050447 0.1626388 -0.0003994
H 1.7347029 -0.5607554 -0.0021125
H 1.6320208 0.9648187 0.0125719
*
$new_job
! wb97m-D3BJ def2-TZVPP rijcosx tightscf SCFConvForced
%base"molecule"
*xyz 0 1
O -4.9637904 -0.2529970 0.0012144
H -4.0197196 -0.0940599 0.0005973
H -5.3778176 0.6077623 -0.0005227
O 1.1050447 0.1626388 -0.0003994
H 1.7347029 -0.5607554 -0.0021125
H 1.6320208 0.9648187 0.0125719
*
$new_job
! wb97m-D3BJ def2-TZVPP rijcosx tightscf SCFConvForced
%base"molecule"
*xyz 0 1
O -5.0637903 -0.2529970 0.0012144
H -4.1197195 -0.0940599 0.0005973
H -5.4778175 0.6077623 -0.0005227
O 1.1050447 0.1626388 -0.0003994
H 1.7347029 -0.5607554 -0.0021125
H 1.6320208 0.9648187 0.0125719
*
$new_job
! wb97m-D3BJ def2-TZVPP rijcosx tightscf SCFConvForced
%base"molecule"
*xyz 0 1
O -5.1637902 -0.2529970 0.0012144
H -4.2197194 -0.0940599 0.0005973
H -5.5778179 0.6077623 -0.0005227
O 1.1050447 0.1626388 -0.0003994
H 1.7347029 -0.5607554 -0.0021125
H 1.6320208 0.9648187 0.0125719
*
$new_job
! wb97m-D3BJ def2-TZVPP rijcosx tightscf SCFConvForced
%base"molecule"
*xyz 0 1
O -5.2637901 -0.2529970 0.0012144
H -4.3197198 -0.0940599 0.0005973
H -5.6778178 0.6077623 -0.0005227
O 1.1050447 0.1626388 -0.0003994
H 1.7347029 -0.5607554 -0.0021125
H 1.6320208 0.9648187 0.0125719
*
$new_job
! wb97m-D3BJ def2-TZVPP rijcosx tightscf SCFConvForced
%base"molecule"
*xyz 0 1
O -5.3637905 -0.2529970 0.0012144
H -4.4197197 -0.0940599 0.0005973
H -5.7778177 0.6077623 -0.0005227
O 1.1050447 0.1626388 -0.0003994
H 1.7347029 -0.5607554 -0.0021125
H 1.6320208 0.9648187 0.0125719
*
$new_job
! wb97m-D3BJ def2-TZVPP rijcosx tightscf SCFConvForced
%base"molecule"
*xyz 0 1
O -5.4637904 -0.2529970 0.0012144
H -4.5197196 -0.0940599 0.0005973
H -5.8778176 0.6077623 -0.0005227
O 1.1050447 0.1626388 -0.0003994
H 1.7347029 -0.5607554 -0.0021125
H 1.6320208 0.9648187 0.0125719
*
$new_job
! wb97m-D3BJ def2-TZVPP rijcosx tightscf SCFConvForced
%base"molecule"
*xyz 0 1
O -5.5637903 -0.2529970 0.0012144
H -4.6197195 -0.0940599 0.0005973
H -5.9778175 0.6077623 -0.0005227
O 1.1050447 0.1626388 -0.0003994
H 1.7347029 -0.5607554 -0.0021125
H 1.6320208 0.9648187 0.0125719
*
$new_job
! wb97m-D3BJ def2-TZVPP rijcosx tightscf SCFConvForced
%base"molecule"
*xyz 0 1
O -5.6637902 -0.2529970 0.0012144
H -4.7197194 -0.0940599 0.0005973
H -6.0778179 0.6077623 -0.0005227
O 1.1050447 0.1626388 -0.0003994
H 1.7347029 -0.5607554 -0.0021125
H 1.6320208 0.9648187 0.0125719
*
$new_job
! wb97m-D3BJ def2-TZVPP rijcosx tightscf SCFConvForced
%base"molecule"
*xyz 0 1
O -5.7637901 -0.2529970 0.0012144
H -4.8197198 -0.0940599 0.0005973
H -6.1778178 0.6077623 -0.0005227
O 1.1050447 0.1626388 -0.0003994
H 1.7347029 -0.5607554 -0.0021125
H 1.6320208 0.9648187 0.0125719
*
$new_job
! wb97m-D3BJ def2-TZVPP rijcosx tightscf SCFConvForced
%base"molecule"
*xyz 0 1
O -5.8637905 -0.2529970 0.0012144
H -4.9197197 -0.0940599 0.0005973
H -6.2778177 0.6077623 -0.0005227
O 1.1050447 0.1626388 -0.0003994
H 1.7347029 -0.5607554 -0.0021125
H 1.6320208 0.9648187 0.0125719
*
$new_job
! wb97m-D3BJ def2-TZVPP rijcosx tightscf SCFConvForced
%base"molecule"
*xyz 0 1
O -5.9637904 -0.2529970 0.0012144
H -5.0197196 -0.0940599 0.0005973
H -6.3778176 0.6077623 -0.0005227
O 1.1050447 0.1626388 -0.0003994
H 1.7347029 -0.5607554 -0.0021125
H 1.6320208 0.9648187 0.0125719
*
$new_job
! wb97m-D3BJ def2-TZVPP rijcosx tightscf SCFConvForced
%base"molecule"
*xyz 0 1
O -6.0637903 -0.2529970 0.0012144
H -5.1197195 -0.0940599 0.0005973
H -6.4778175 0.6077623 -0.0005227
O 1.1050447 0.1626388 -0.0003994
H 1.7347029 -0.5607554 -0.0021125
H 1.6320208 0.9648187 0.0125719
*
$new_job
! wb97m-D3BJ def2-TZVPP rijcosx tightscf SCFConvForced
%base"molecule"
*xyz 0 1
O -6.1637902 -0.2529970 0.0012144
H -5.2197194 -0.0940599 0.0005973
H -6.5778179 0.6077623 -0.0005227
O 1.1050447 0.1626388 -0.0003994
H 1.7347029 -0.5607554 -0.0021125
H 1.6320208 0.9648187 0.0125719
*
$new_job
! wb97m-D3BJ def2-TZVPP rijcosx tightscf SCFConvForced
%base"molecule"
*xyz 0 1
O -6.2637901 -0.2529970 0.0012144
H -5.3197198 -0.0940599 0.0005973
H -6.6778178 0.6077623 -0.0005227
O 1.1050447 0.1626388 -0.0003994
H 1.7347029 -0.5607554 -0.0021125
H 1.6320208 0.9648187 0.0125719
*
$new_job
! wb97m-D3BJ def2-TZVPP rijcosx tightscf SCFConvForced
%base"molecule"
*xyz 0 1
O -6.3637905 -0.2529970 0.0012144
H -5.4197197 -0.0940599 0.0005973
H -6.7778177 0.6077623 -0.0005227
O 1.1050447 0.1626388 -0.0003994
H 1.7347029 -0.5607554 -0.0021125
H 1.6320208 0.9648187 0.0125719
*
$new_job
! wb97m-D3BJ def2-TZVPP rijcosx tightscf SCFConvForced
%base"molecule"
*xyz 0 1
O -6.4637904 -0.2529970 0.0012144
H -5.5197196 -0.0940599 0.0005973
H -6.8778176 0.6077623 -0.0005227
O 1.1050447 0.1626388 -0.0003994
H 1.7347029 -0.5607554 -0.0021125
H 1.6320208 0.9648187 0.0125719
*
$new_job
! wb97m-D3BJ def2-TZVPP rijcosx tightscf SCFConvForced
%base"molecule"
*xyz 0 1
O -6.5637903 -0.2529970 0.0012144
H -5.6197195 -0.0940599 0.0005973
H -6.9778175 0.6077623 -0.0005227
O 1.1050447 0.1626388 -0.0003994
H 1.7347029 -0.5607554 -0.0021125
H 1.6320208 0.9648187 0.0125719
*
$new_job
! wb97m-D3BJ def2-TZVPP rijcosx tightscf SCFConvForced
%base"molecule"
*xyz 0 1
O -6.6637902 -0.2529970 0.0012144
H -5.7197194 -0.0940599 0.0005973
H -7.0778179 0.6077623 -0.0005227
O 1.1050447 0.1626388 -0.0003994
H 1.7347029 -0.5607554 -0.0021125
H 1.6320208 0.9648187 0.0125719
*
$new_job
! wb97m-D3BJ def2-TZVPP rijcosx tightscf SCFConvForced
%base"molecule"
*xyz 0 1
O -6.7637901 -0.2529970 0.0012144
H -5.8197198 -0.0940599 0.0005973
H -7.1778178 0.6077623 -0.0005227
O 1.1050447 0.1626388 -0.0003994
H 1.7347029 -0.5607554 -0.0021125
H 1.6320208 0.9648187 0.0125719
*
$new_job
! wb97m-D3BJ def2-TZVPP rijcosx tightscf SCFConvForced
%base"molecule"
*xyz 0 1
O -6.8637905 -0.2529970 0.0012144
H -5.9197197 -0.0940599 0.0005973
H -7.2778177 0.6077623 -0.0005227
O 1.1050447 0.1626388 -0.0003994
H 1.7347029 -0.5607554 -0.0021125
H 1.6320208 0.9648187 0.0125719
*
$new_job
! wb97m-D3BJ def2-TZVPP rijcosx tightscf SCFConvForced
%base"molecule"
*xyz 0 1
O -6.9637904 -0.2529970 0.0012144
H -6.0197196 -0.0940599 0.0005973
H -7.3778176 0.6077623 -0.0005227
O 1.1050447 0.1626388 -0.0003994
H 1.7347029 -0.5607554 -0.0021125
H 1.6320208 0.9648187 0.0125719
*
$new_job
! wb97m-D3BJ def2-TZVPP rijcosx tightscf SCFConvForced
%base"molecule"
*xyz 0 1
O -7.0637903 -0.2529970 0.0012144
H -6.1197195 -0.0940599 0.0005973
H -7.4778175 0.6077623 -0.0005227
O 1.1050447 0.1626388 -0.0003994
H 1.7347029 -0.5607554 -0.0021125
H 1.6320208 0.9648187 0.0125719
*
$new_job
! wb97m-D3BJ def2-TZVPP rijcosx tightscf SCFConvForced
%base"molecule"
*xyz 0 1
O -7.1637902 -0.2529970 0.0012144
H -6.2197194 -0.0940599 0.0005973
H -7.5778179 0.6077623 -0.0005227
O 1.1050447 0.1626388 -0.0003994
H 1.7347029 -0.5607554 -0.0021125
H 1.6320208 0.9648187 0.0125719
*
$new_job
! wb97m-D3BJ def2-TZVPP rijcosx tightscf SCFConvForced
%base"molecule"
*xyz 0 1
O -7.2637901 -0.2529970 0.0012144
H -6.3197198 -0.0940599 0.0005973
H -7.6778178 0.6077623 -0.0005227
O 1.1050447 0.1626388 -0.0003994
H 1.7347029 -0.5607554 -0.0021125
H 1.6320208 0.9648187 0.0125719
*
$new_job
! wb97m-D3BJ def2-TZVPP rijcosx tightscf SCFConvForced
%base"molecule"
*xyz 0 1
O -7.3637905 -0.2529970 0.0012144
H -6.4197197 -0.0940599 0.0005973
H -7.7778177 0.6077623 -0.0005227
O 1.1050447 0.1626388 -0.0003994
H 1.7347029 -0.5607554 -0.0021125
H 1.6320208 0.9648187 0.0125719
*
$new_job
! wb97m-D3BJ def2-TZVPP rijcosx tightscf SCFConvForced
%base"molecule"
*xyz 0 1
O -7.4637904 -0.2529970 0.0012144
H -6.5197196 -0.0940599 0.0005973
H -7.8778176 0.6077623 -0.0005227
O 1.1050447 0.1626388 -0.0003994
H 1.7347029 -0.5607554 -0.0021125
H 1.6320208 0.9648187 0.0125719
*
$new_job
! wb97m-D3BJ def2-TZVPP rijcosx tightscf SCFConvForced
%base"molecule"
*xyz 0 1
O -7.5637903 -0.2529970 0.0012144
H -6.6197195 -0.0940599 0.0005973
H -7.9778175 0.6077623 -0.0005227
O 1.1050447 0.1626388 -0.0003994
H 1.7347029 -0.5607554 -0.0021125
H 1.6320208 0.9648187 0.0125719
*
$new_job
! wb97m-D3BJ def2-TZVPP rijcosx tightscf SCFConvForced
%base"molecule"
*xyz 0 1
O -7.6637902 -0.2529970 0.0012144
H -6.7197194 -0.0940599 0.0005973
H -8.0778179 0.6077623 -0.0005227
O 1.1050447 0.1626388 -0.0003994
H 1.7347029 -0.5607554 -0.0021125
H 1.6320208 0.9648187 0.0125719
*
$new_job
! wb97m-D3BJ def2-TZVPP rijcosx tightscf SCFConvForced
%base"molecule"
*xyz 0 1
O -7.7637901 -0.2529970 0.0012144
H -6.8197198 -0.0940599 0.0005973
H -8.1778173 0.6077623 -0.0005227
O 1.1050447 0.1626388 -0.0003994
H 1.7347029 -0.5607554 -0.0021125
H 1.6320208 0.9648187 0.0125719
*
$new_job
! wb97m-D3BJ def2-TZVPP rijcosx tightscf SCFConvForced
%base"molecule"
*xyz 0 1
O -7.8637905 -0.2529970 0.0012144
H -6.9197197 -0.0940599 0.0005973
H -8.2778177 0.6077623 -0.0005227
O 1.1050447 0.1626388 -0.0003994
H 1.7347029 -0.5607554 -0.0021125
H 1.6320208 0.9648187 0.0125719
*
$new_job
! wb97m-D3BJ def2-TZVPP rijcosx tightscf SCFConvForced
%base"molecule"
*xyz 0 1
O -7.9637904 -0.2529970 0.0012144
H -7.0197196 -0.0940599 0.0005973
H -8.3778181 0.6077623 -0.0005227
O 1.1050447 0.1626388 -0.0003994
H 1.7347029 -0.5607554 -0.0021125
H 1.6320208 0.9648187 0.0125719
*
$new_job
! wb97m-D3BJ def2-TZVPP rijcosx tightscf SCFConvForced
%base"molecule"
*xyz 0 1
O -8.0637903 -0.2529970 0.0012144
H -7.1197195 -0.0940599 0.0005973
H -8.4778175 0.6077623 -0.0005227
O 1.1050447 0.1626388 -0.0003994
H 1.7347029 -0.5607554 -0.0021125
H 1.6320208 0.9648187 0.0125719
*
$new_job
! wb97m-D3BJ def2-TZVPP rijcosx tightscf SCFConvForced
%base"molecule"
*xyz 0 1
O -8.1637907 -0.2529970 0.0012144
H -7.2197194 -0.0940599 0.0005973
H -8.5778179 0.6077623 -0.0005227
O 1.1050447 0.1626388 -0.0003994
H 1.7347029 -0.5607554 -0.0021125
H 1.6320208 0.9648187 0.0125719
*
$new_job
! wb97m-D3BJ def2-TZVPP rijcosx tightscf SCFConvForced
%base"molecule"
*xyz 0 1
O -8.2637901 -0.2529970 0.0012144
H -7.3197198 -0.0940599 0.0005973
H -8.6778173 0.6077623 -0.0005227
O 1.1050447 0.1626388 -0.0003994
H 1.7347029 -0.5607554 -0.0021125
H 1.6320208 0.9648187 0.0125719
*
$new_job
! wb97m-D3BJ def2-TZVPP rijcosx tightscf SCFConvForced
%base"molecule"
*xyz 0 1
O -8.3637905 -0.2529970 0.0012144
H -7.4197197 -0.0940599 0.0005973
H -8.7778177 0.6077623 -0.0005227
O 1.1050447 0.1626388 -0.0003994
H 1.7347029 -0.5607554 -0.0021125
H 1.6320208 0.9648187 0.0125719
*
$new_job
! wb97m-D3BJ def2-TZVPP rijcosx tightscf SCFConvForced
%base"molecule"
*xyz 0 1
O -8.4637899 -0.2529970 0.0012144
H -7.5197196 -0.0940599 0.0005973
H -8.8778181 0.6077623 -0.0005227
O 1.1050447 0.1626388 -0.0003994
H 1.7347029 -0.5607554 -0.0021125
H 1.6320208 0.9648187 0.0125719
*
$new_job
! wb97m-D3BJ def2-TZVPP rijcosx tightscf SCFConvForced
%base"molecule"
*xyz 0 1
O -8.5637903 -0.2529970 0.0012144
H -7.6197195 -0.0940599 0.0005973
H -8.9778175 0.6077623 -0.0005227
O 1.1050447 0.1626388 -0.0003994
H 1.7347029 -0.5607554 -0.0021125
H 1.6320208 0.9648187 0.0125719
*
$new_job
! wb97m-D3BJ def2-TZVPP rijcosx tightscf SCFConvForced
%base"molecule"
*xyz 0 1
O -8.6637907 -0.2529970 0.0012144
H -7.7197194 -0.0940599 0.0005973
H -9.0778179 0.6077623 -0.0005227
O 1.1050447 0.1626388 -0.0003994
H 1.7347029 -0.5607554 -0.0021125
H 1.6320208 0.9648187 0.0125719
*
$new_job
! wb97m-D3BJ def2-TZVPP rijcosx tightscf SCFConvForced
%base"molecule"
*xyz 0 1
O -8.7637901 -0.2529970 0.0012144
H -7.8197198 -0.0940599 0.0005973
H -9.1778173 0.6077623 -0.0005227
O 1.1050447 0.1626388 -0.0003994
H 1.7347029 -0.5607554 -0.0021125
H 1.6320208 0.9648187 0.0125719
*
